ZINC39580543
  -OEChem-01181714593D

 29 31  0     1  0  0  0  0  0999 V2000
    8.7759   25.5423    6.8292 C   0  0  0  0  0  0  0  0  0  0  0  0
    9.3799   25.6665    8.0664 C   0  0  0  0  0  0  0  0  0  0  0  0
   10.6852   25.2472    8.2436 C   0  0  0  0  0  0  0  0  0  0  0  0
   11.3863   24.7034    7.1836 C   0  0  0  0  0  0  0  0  0  0  0  0
   10.7820   24.5784    5.9466 C   0  0  0  0  0  0  0  0  0  0  0  0
    9.4773   24.9989    5.7691 C   0  0  0  0  0  0  0  0  0  0  0  0
   12.8096   24.2473    7.3765 C   0  0  0  0  0  0  0  0  0  0  0  0
   12.8229   22.5058    7.8846 S   0  0  0  0  0  0  0  0  0  0  0  0
   14.5342   22.1280    8.0667 C   0  0  0  0  0  0  0  0  0  0  0  0
   15.5125   23.0134    7.8558 N   0  3  0  0  0  0  0  0  0  0  0  0
   16.8013   22.6734    8.0150 C   0  0  0  0  0  0  0  0  0  0  0  0
   17.2848   21.4618    8.0849 N   0  0  0  0  0  0  0  0  0  0  0  0
   16.3874   20.3173    7.9284 C   0  0  2  0  0  0  0  0  0  0  0  0
   16.3148   20.0115    6.8847 H   0  0  0  0  0  0  0  0  0  0  0  0
   15.0378   20.8025    8.4742 C   0  0  0  0  0  0  0  0  0  0  0  0
   14.6283   19.8778    9.2565 N   0  0  0  0  0  0  0  0  0  0  0  0
   15.6081   18.9911    9.5245 C   0  0  0  0  0  0  0  0  0  0  0  0
   16.6979   19.1821    8.7943 N   0  0  0  0  0  0  0  0  0  0  0  0
   17.7083   23.7097    8.1147 N   0  5  0  0  0  0  0  0  0  0  0  0
    7.7547   25.8658    6.6920 H   0  0  0  0  0  0  0  0  0  0  0  0
    8.8321   26.0914    8.8945 H   0  0  0  0  0  0  0  0  0  0  0  0
   11.1572   25.3449    9.2100 H   0  0  0  0  0  0  0  0  0  0  0  0
   11.3300   24.1538    5.1184 H   0  0  0  0  0  0  0  0  0  0  0  0
    9.0052   24.9017    4.8027 H   0  0  0  0  0  0  0  0  0  0  0  0
   13.3563   24.3567    6.4399 H   0  0  0  0  0  0  0  0  0  0  0  0
   13.2844   24.8543    8.1474 H   0  0  0  0  0  0  0  0  0  0  0  0
   15.5097   18.1952   10.2479 H   0  0  0  0  0  0  0  0  0  0  0  0
   18.6522   23.5187    8.2308 H   0  0  0  0  0  0  0  0  0  0  0  0
   15.2878   23.9167    7.5830 H   0  0  0  0  0  0  0  0  0  0  0  0
  1  6  2  0  0  0  0
  1  2  1  0  0  0  0
  1 20  1  0  0  0  0
  2  3  2  0  0  0  0
  2 21  1  0  0  0  0
  3  4  1  0  0  0  0
  3 22  1  0  0  0  0
  4  5  2  0  0  0  0
  4  7  1  0  0  0  0
  5  6  1  0  0  0  0
  5 23  1  0  0  0  0
  6 24  1  0  0  0  0
  7  8  1  0  0  0  0
  7 25  1  0  0  0  0
  7 26  1  0  0  0  0
  8  9  1  0  0  0  0
  9 15  1  0  0  0  0
  9 10  2  0  0  0  0
 10 11  1  0  0  0  0
 10 29  1  0  0  0  0
 11 12  2  0  0  0  0
 11 19  1  0  0  0  0
 12 13  1  0  0  0  0
 13 14  1  0  0  0  0
 13 18  1  0  0  0  0
 13 15  1  0  0  0  0
 15 16  2  0  0  0  0
 16 17  1  0  0  0  0
 17 18  2  0  0  0  0
 17 27  1  0  0  0  0
 19 28  1  0  0  0  0
M  CHG  2  10   1  19  -1
M  END
> <FRED Chemgauss4 score>
-8.545704

$$$$
29920 29919
  -OEChem-01181714593D

 23 24  0     0  0  0  0  0  0999 V2000
   16.2808   19.4713   10.2180 C   0  0  0  0  0  0  0  0  0  0  0  0
   15.4296   20.1970    9.3921 C   0  0  0  0  0  0  0  0  0  0  0  0
   14.3092   22.0841    5.1128 C   0  0  0  0  0  0  0  0  0  0  0  0
   15.1733   21.3310    5.8999 C   0  0  0  0  0  0  0  0  0  0  0  0
   17.5664   19.2219    9.7656 C   0  0  0  0  0  0  0  0  0  0  0  0
   17.1871   20.3431    7.7964 C   0  0  0  0  0  0  0  0  0  0  0  0
   13.2678   22.8713    7.1009 C   0  0  0  0  0  0  0  0  0  0  0  0
   15.8837   20.6449    8.1565 C   0  0  0  0  0  0  0  0  0  0  0  0
   13.3355   22.8716    5.7170 C   0  0  0  0  0  0  0  0  0  0  0  0
   15.0235   21.3997    7.2757 C   0  0  0  0  0  0  0  0  0  0  0  0
   12.4189   23.6698    4.9220 C   0  0  0  0  0  0  0  0  0  0  0  0
   18.0432   19.6406    8.5718 N   0  0  0  0  0  0  0  0  0  0  0  0
   14.0897   22.1531    7.8987 N   0  0  0  0  0  0  0  0  0  0  0  0
   11.1869   23.5619    4.9220 O   0  0  0  0  0  0  0  0  0  0  0  0
   13.0620   24.5853    4.1451 O   0  0  0  0  0  0  0  0  0  0  0  0
   15.9493   19.1118   11.1853 H   0  0  0  0  0  0  0  0  0  0  0  0
   14.4149   20.4045    9.7229 H   0  0  0  0  0  0  0  0  0  0  0  0
   14.4016   22.0499    4.0306 H   0  0  0  0  0  0  0  0  0  0  0  0
   15.9355   20.7131    5.4362 H   0  0  0  0  0  0  0  0  0  0  0  0
   18.2691   18.6605   10.3725 H   0  0  0  0  0  0  0  0  0  0  0  0
   17.6015   20.6620    6.8443 H   0  0  0  0  0  0  0  0  0  0  0  0
   12.5294   23.4664    7.6299 H   0  0  0  0  0  0  0  0  0  0  0  0
   12.4512   25.1300    3.6040 H   0  0  0  0  0  0  0  0  0  0  0  0
  1  2  1  0  0  0  0
  1  5  2  0  0  0  0
  2  8  2  0  0  0  0
  3  4  2  0  0  0  0
  3  9  1  0  0  0  0
  4 10  1  0  0  0  0
  5 12  1  0  0  0  0
  6  8  1  0  0  0  0
  6 12  2  0  0  0  0
  7  9  2  0  0  0  0
  7 13  1  0  0  0  0
  8 10  1  0  0  0  0
  9 11  1  0  0  0  0
 10 13  2  0  0  0  0
 11 14  2  0  0  0  0
 11 15  1  0  0  0  0
  1 16  1  0  0  0  0
  2 17  1  0  0  0  0
  3 18  1  0  0  0  0
  4 19  1  0  0  0  0
  5 20  1  0  0  0  0
  6 21  1  0  0  0  0
  7 22  1  0  0  0  0
 15 23  1  0  0  0  0
M  END
> <FRED Chemgauss4 score>
-8.247169

$$$$
29946 29945
  -OEChem-01181714593D

 21 22  0     0  0  0  0  0  0999 V2000
   12.4039   23.5349    6.1257 C   0  0  0  0  0  0  0  0  0  0  0  0
   15.9831   19.4099    9.8155 C   0  0  0  0  0  0  0  0  0  0  0  0
   15.2886   20.0889    8.8205 C   0  0  0  0  0  0  0  0  0  0  0  0
   14.1721   22.0228    6.9026 C   0  0  0  0  0  0  0  0  0  0  0  0
   17.3330   19.1700    9.6159 C   0  0  0  0  0  0  0  0  0  0  0  0
   14.0042   22.5125    4.5812 C   0  0  0  0  0  0  0  0  0  0  0  0
   17.3073   20.2129    7.5688 C   0  0  0  0  0  0  0  0  0  0  0  0
   15.6636   21.0949    5.2992 C   0  0  0  0  0  0  0  0  0  0  0  0
   13.5253   22.6913    5.8690 C   0  0  0  0  0  0  0  0  0  0  0  0
   15.9560   20.5014    7.6725 C   0  0  0  0  0  0  0  0  0  0  0  0
   15.2624   21.2073    6.6206 C   0  0  0  0  0  0  0  0  0  0  0  0
   11.4916   24.2211    6.3343 N   0  0  0  0  0  0  0  0  0  0  0  0
   18.0154   19.5554    8.5143 N   0  0  0  0  0  0  0  0  0  0  0  0
   15.0604   21.7287    4.2685 N   0  0  0  0  0  0  0  0  0  0  0  0
   15.4844   19.0785   10.7190 H   0  0  0  0  0  0  0  0  0  0  0  0
   14.2279   20.2878    8.9518 H   0  0  0  0  0  0  0  0  0  0  0  0
   13.8273   22.1394    7.9285 H   0  0  0  0  0  0  0  0  0  0  0  0
   17.9196   18.6446   10.3623 H   0  0  0  0  0  0  0  0  0  0  0  0
   13.5435   23.0061    3.7302 H   0  0  0  0  0  0  0  0  0  0  0  0
   17.8852   20.5060    6.6970 H   0  0  0  0  0  0  0  0  0  0  0  0
   16.5085   20.4751    5.0132 H   0  0  0  0  0  0  0  0  0  0  0  0
  1  9  1  0  0  0  0
  1 12  3  0  0  0  0
  2  3  1  0  0  0  0
  2  5  2  0  0  0  0
  3 10  2  0  0  0  0
  4  9  2  0  0  0  0
  4 11  1  0  0  0  0
  5 13  1  0  0  0  0
  6  9  1  0  0  0  0
  6 14  2  0  0  0  0
  7 10  1  0  0  0  0
  7 13  2  0  0  0  0
  8 11  2  0  0  0  0
  8 14  1  0  0  0  0
 10 11  1  0  0  0  0
  2 15  1  0  0  0  0
  3 16  1  0  0  0  0
  4 17  1  0  0  0  0
  5 18  1  0  0  0  0
  6 19  1  0  0  0  0
  7 20  1  0  0  0  0
  8 21  1  0  0  0  0
M  END
> <FRED Chemgauss4 score>
-7.629138

$$$$
